ipss.plugin.multiNet/testData/threeBusSys.raw
 0,    100.00, 33, 0, 0, 60.00       / October 01, 2013 18:37:53
 08/19/93 UW ARCHIVE           100.0  1962 W IEEE 14 Bus Test Case
 0
     1,'BUS-1       ',  16.5000,2,     0.000,     0.000,   1,   1,1.04000,   4.0000,   1
     2,'BUS-2       ',  230.000,1,     0.000,     0.000,   1,   1,1.02500,   3.2800,   1
     3,'BUS-3       ',  230.000,3,     0.000,     0.000,   1,   1,1.02500,   0.00,   1
0 / END OF BUS DATA, BEGIN LOAD DATA
     2,'1 ',1,   1,   1,   100.000,    20.000,     0.000,     0.000,     0.000,     0.000,   1
0 / END OF Load, BEGIN GENERATOR DATA
     1,'1 ',    71.640,    27.050,  9999.000, -9999.000,1.04000,     0,   100.000,   0.003,   0.2,   0.00000,   0.00000,1.00000,1,  100.0,  9999.000, -9999.000,   1,1.0000,   0,0.0000,   0,0.0000,   0,0.0000
     3,'1 ',    85.000,   -10.860, 99990.000,-99990.000,1.02500,     0,   100.000,   0.02,   0.2,   0.00000,   0.00000,1.00000,1,  100.0,  9999.000, -9999.000,   1,1.0000,   0,0.0000,   0,0.0000,   0,0.0000
0 / END OF GENERATOR DATA, BEGIN NON-TRANSFORMER BRANCH DATA
     2,      3,'0 ',   0.00,   0.1,   0.2,    0.00,    0.00,    0.00,  0.00000,  0.00000,  0.00000,  0.00000,1,   0.00,   1,1.0000,   0,0.0000,   0,0.0000,   0,0.0000
 0 / END OF NON-TRANSFORMER BRANCH DATA, BEGIN TRANSFORMER DATA
   2,  1,  0,  '0',  1,  1,  1,  0,  0,  2,  'Gen1_to_Bus1_cirId_1',  1,  1,  1.0,  0,  0.0,  0,  0.0,  0,  0.0
0.0000,  0.05,  100.0
1.0000,  230.0,  0.0,  0.0,  0.0,  0.0,  0,  0,  1.1,  0.9,  1.1,  0.9,  33,  0,  0.0,  0.0
1.0,  16.50,  
 0 / END OF TRANSFORMER DATA, BEGIN AREA INTERCHANGE DATA
 0 / END OF AREA INTERCHANGE DATA, BEGIN TWO-TERMINAL DC DATA
 0 / END OF TWO-TERMINAL DC DATA, BEGIN VSC DC LINE DATA
 0 / END OF VSC DC LINE DATA, BEGIN SWITCHED SHUNT DATA
 0 / END OF SWITCHED SHUNT DATA, BEGIN TRANS. IMP. CORR. TABLE DATA
 0 / END OF TRANS. IMP. CORR. TABLE DATA, BEGIN MULTI-TERMINAL DC LINE DATA
 0 / END OF MULTI-TERMINAL DC LINE DATA, BEGIN MULTI-SECTION LINE DATA
 0 / END OF MULTI-SECTION LINE DATA, BEGIN ZONE DATA
 0 / END OF ZONE DATA, BEGIN INTERAREA TRANSFER DATA
 0 / END OF INTERAREA TRANSFER DATA, BEGIN OWNER DATA
 0 / END OF OWNER DATA, BEGIN FACTS DEVICE DATA
 0 / END OF FACTS DEVICE DATA, END OF CASE DATA
